LAMMPS (11 Aug 2017)
# Nuclear model with 75% neutrons and 25% protons
# Run to generate equilibrium position

units             lj
atom_style        atomic

pair_style        table linear 5000
boundary          p p p

read_data	  data.input_ZNyN
  orthogonal box = (0 0 0) to (42.2 42.2 42.2)
  reading atoms ...
  6000 atoms
  reading velocities ...
  6000 velocities

neighbor          1.2 bin
neigh_modify      every 1 delay 0 check yes one 8000 page 80000

timestep          0.1

thermo_style      custom step temp ke epair etotal press cpu
thermo            200
pair_coeff        1 1 pandha_msc.table NN 5.4
pair_coeff        1 2 pandha_msc.table NP 5.4
pair_coeff        2 2 pandha_msc.table PP 5.4

variable          p_step equal step
variable          p_temp equal temp
variable          p_ke equal ke
variable          p_epair equal epair
variable          p_tot equal etotal

dump              myDUMP all custom 2000 eq_t_2_*.lammpstrj id type x y z vx vy vz
fix               1 all nvt temp 2.0 2.0 10.0

run 20000
  update every 1 steps, delay 0 steps, check yes
Step Temp KinEng E_pair TotEng Press CPU
0    1.0325194    1.5485209    4.8494575    6.3979784    1.3964372            0
Averages over the last 51 of 101 rows, steps 10000 to 20000:
Temp KinEng E_pair TotEng Press
1.9975 2.99575 -2.07885 0.916905 0.819983
Loop time of 278.312 on 1 procs for 20000 steps with 6000 atoms
