LAMMPS (11 Aug 2017)
#Nuclear model
#Difusion

units             lj
atom_style        atomic

pair_style        table linear 5000
boundary          p p p

read_data	  data.input_ZNyN
  orthogonal box = (0 0 0) to (42.2 42.2 42.2)
  reading atoms ...
  6000 atoms
  reading velocities ...
  6000 velocities

neighbor          1.2 bin
neigh_modify      every 1 delay 0 check yes one 8000 page 80000

timestep          0.1

thermo_style      custom step temp ke epair etotal press cpu
thermo            500
pair_coeff        1 1 pandha_msc.table NN 5.4
pair_coeff        1 2 pandha_msc.table NP 5.4
pair_coeff        2 2 pandha_msc.table PP 5.4

min_style         hftn
minimize          0 1.0 1000 100000
  update every 1 steps, delay 0 steps, check yes
Step Temp KinEng E_pair TotEng Press CPU
0    1.0325194    1.5485209    4.8494575    6.3979784    1.3964372            0
Loop time of 61.1443 on 1 procs for 1000 steps with 6000 atoms

Minimization stats:
  Stopping criterion = max iterations
  Energy initial, next-to-last, final =
  Force two-norm initial, final = 2952.63 155.11
  Force max component initial, final = 986.594 8.7305
  Final line search alpha, max atom move = 0 0
  Iterations, force evaluations = 1000 5001

dump myDUMP all custom 50 output_difusion.lammpstrj id type x y z vx vy vz
fix 1 all nvt temp 4.0 1.0 10.0
run 10000
Step Temp KinEng E_pair TotEng Press CPU
1000    1.0325194    1.5485209   -2.2776059  -0.72908502   0.78700695            0
Averages over the last 11 of 21 rows, steps 6000 to 11000:
Temp KinEng E_pair TotEng Press
1.76393 2.64546 -2.33943 0.306025 0.781959
Loop time of 119.924 on 1 procs for 10000 steps with 6000 atoms
